Caso_B9_150.rel
CEPEL - CENTRO DE PESQUISAS DE ENERGIA ELETRICA - PROGRAMA DE ANALISE DE REDES - V11.07.00                                 PAG.   1

                                                                                 
 RELATORIO DE BARRAS CA DO SISTEMA * AREA   1 *                                     

 X---------------------X-----------X---------------X---------------X---------------X---------------X---------------X---------------X---X
          BARRA            TENSAO        GERACAO     INJECAO EQUIV        CARGA          ELO CC          SHUNT           MOTOR
  NUM.      NOME     TP  MOD   ANG      MW    Mvar\     MW    Mvar      MW    Mvar      MW    Mvar    Mvar   EQUIV      MW    Mvar
                                            CE Mvar                                                 SHUNT L                         EST
 X-----X------------X--X-----X-----X-------X-------X-------X-------X-------X-------X-------X-------X-------X-------X-------X-------X---X

      1 Bar-1 Ger1    2 1.000  -0.0   271.4    71.5     0.0     0.0     0.0     0.0     0.0     0.0     0.0     0.0     0.0     0.0 LIG
      2 Bar-2 Ger2    1 1.000 -12.0   100.0    49.9     0.0     0.0     0.0     0.0     0.0     0.0     0.0     0.0     0.0     0.0 LIG
      3 Bar-3         0 0.973  -8.3     0.0     0.0     0.0     0.0     0.0     0.0     0.0     0.0     0.0     0.0     0.0     0.0 LIG
      4 Bar-4         0 0.965 -16.3     0.0     0.0     0.0     0.0     0.0     0.0     0.0     0.0     0.0     0.0     0.0     0.0 LIG
      5 Bar-5 Car1    0 0.940 -14.3     0.0     0.0     0.0     0.0    55.0    27.0     0.0     0.0     0.0     0.0     0.0     0.0 LIG
      6 Bar-6 Car2    0 0.953 -17.4     0.0     0.0     0.0     0.0    37.0    18.0     0.0     0.0     0.0     0.0     0.0     0.0 LIG
      7 Bar-7 Car3    0 0.925 -19.7     0.0     0.0     0.0     0.0    68.0    45.0     0.0     0.0     0.0     0.0     0.0     0.0 LIG
      8 Bar-8 Car4    0 0.944 -16.8     0.0     0.0     0.0     0.0    90.0    35.0     0.0     0.0     0.0     0.0     0.0     0.0 LIG
      9 Bar-9 Car5    0 0.901 -23.4     0.0     0.0     0.0     0.0   112.5    42.0     0.0     0.0     0.0     0.0     0.0     0.0 LIG
CEPEL - CENTRO DE PESQUISAS DE ENERGIA ELETRICA - PROGRAMA DE ANALISE DE REDES - V11.07.00                                 PAG.   2

                                                                                 
 RELATORIO COMPLETO DO SISTEMA * AREA   1 *                                     

 X--------------------- D A D O S  -  B A R R A ---------------------------X------------- F L U X O S  -  C I R C U I T O S --------------X--------X--------X-----------X
  DA BARRA       TENSAO GERACAO INJ EQV  CARGA   ELO CC  SHUNT    MOTOR                                                                                              
  NUM.  KV TIPO   MOD/     MW/     MW/     MW/     MW/   Mvar/     MW/                                                                    P E R D A S       TENSAO   
       NOME       ANG     Mvar    Mvar    Mvar    Mvar   EQUIV    Mvar  PARA BARRA                     FLUXOS                           ATIVA   REATIVA  CIR. ABERTO 
                        MVA_NOM MVA_EMR MVA_EQP   FLUXO %   SHUNT L         NUM.      NOME     NC    MW     Mvar  MVA/V_d   TAP  DEFAS TIE    MW      Mvar    MOD   ANG  
 X-------------X-------X-------X-------X-------X-----------X-------X-------X-----X------------X--X-------X-------X-------X------X-----X---X--------X--------X-----X-----X

      1   14  2   1.000   271.4     0.0     0.0         0.0     0.0     0.0
  Bar-1 Ger1       -0.0    71.5     0.0     0.0         0.0     0.0     0.0                                          
                          300.0   300.0   300.0       93.6%                     3 Bar-3         1   271.4    71.5   280.7 1.000F   0.3         0.00    42.07            
  .......................................................................................................................................................................
      2   14  1   1.000   100.0     0.0     0.0         0.0     0.0     0.0
  Bar-2 Ger2      -12.0    49.9     0.0     0.0         0.0     0.0     0.0                                          
                          260.0   260.0   260.0       43.0%                     4 Bar-4         1   100.0    49.9   111.7 1.000F   0.3         0.00     9.59            
  .......................................................................................................................................................................
      3  230  0   0.973     0.0     0.0     0.0         0.0     0.0     0.0
  Bar-3            -8.3     0.0     0.0     0.0         0.0     0.0     0.0                                          
                          300.0   300.0   300.0       93.6%                     1 Bar-1 Ger1    1  -271.4   -29.4   280.7                      0.00    42.07            
                          200.0   220.0   200.0       56.0%                     5 Bar-5 Car1    3   108.3    12.1   112.1                      2.18    -2.68            
                          200.0   220.0   200.0       84.3%                     8 Bar-8 Car4    1   163.1    17.3   168.6                      2.88     8.32            
  .......................................................................................................................................................................
      4  230  0   0.965     0.0     0.0     0.0         0.0     0.0     0.0
  Bar-4           -16.3     0.0     0.0     0.0         0.0     0.0     0.0                                          
                          260.0   260.0   260.0       43.0%                     2 Bar-2 Ger2    1  -100.0   -40.3   111.7                      0.00     9.59            
                          200.0   220.0   200.0       14.3%                     6 Bar-6 Car2    1    27.1     5.4    28.6                      0.08   -13.02            
                          200.0   220.0   200.0       41.9%                     7 Bar-7 Car3    1    72.9    34.9    83.8                      0.69    -8.43            
  .......................................................................................................................................................................
      5  230  0   0.940     0.0     0.0    55.0         0.0     0.0     0.0
  Bar-5 Car1      -14.3     0.0     0.0    27.0         0.0     0.0     0.0                                          
                          200.0   220.0   200.0       57.0%                     3 Bar-3         3  -106.1   -14.8   113.9                      2.18    -2.68            
                          200.0   220.0   200.0       28.0%                     7 Bar-7 Car3    1    51.1   -12.2    55.9                      0.95   -21.86            
  .......................................................................................................................................................................
      6  230  0   0.953     0.0     0.0    37.0         0.0     0.0     0.0
  Bar-6 Car2      -17.4     0.0     0.0    18.0         0.0     0.0     0.0                                          
                          200.0   220.0   200.0       17.1%                     4 Bar-4         1   -27.0   -18.4    34.3                      0.08   -13.02            
                          200.0   220.0   200.0        5.2%                     8 Bar-8 Car4    1   -10.0     0.4    10.5                      0.03   -22.81            
  .......................................................................................................................................................................
      7  230  0   0.925     0.0     0.0    68.0         0.0     0.0     0.0
  Bar-7 Car3      -19.7     0.0     0.0    45.0         0.0     0.0     0.0                                          
                          200.0   220.0   200.0       45.5%                     4 Bar-4         1   -72.2   -43.3    91.1                      0.69    -8.43            
                          200.0   220.0   200.0       27.6%                     5 Bar-5 Car1    1   -50.2    -9.6    55.3                      0.95   -21.86            
                          200.0   220.0   200.0       29.7%                     9 Bar-9 Car5    1    54.4     7.9    59.5                      0.45   -13.60            
  .......................................................................................................................................................................
      8  230  0   0.944     0.0     0.0    90.0         0.0     0.0     0.0
  Bar-8 Car4      -16.8     0.0     0.0    35.0         0.0     0.0     0.0                                          
                          200.0   220.0   200.0       85.0%                     3 Bar-3         1  -160.2    -9.0   170.0                      2.88     8.32            
                          200.0   220.0   200.0       13.4%                     6 Bar-6 Car2    1    10.0   -23.2    26.8                      0.03   -22.81            
                          200.0   220.0   200.0       31.9%                     9 Bar-9 Car5    1    60.2    -2.8    63.8                      1.66   -23.25            
  .......................................................................................................................................................................
      9  230  0   0.901     0.0     0.0   112.5         0.0     0.0     0.0
  Bar-9 Car5      -23.4     0.0     0.0    42.0         0.0     0.0     0.0                                          
                          200.0   220.0   200.0       32.2%                     7 Bar-7 Car3    1   -54.0   -21.6    64.5                      0.45   -13.60            
                          200.0   220.0   200.0       34.4%                     8 Bar-8 Car4    1   -58.5   -20.4    68.8                      1.66   -23.25            



 TOTAIS DA AREA   1


 X--------X--------X--------X--------X--------X--------X--------X--------X
   GERACAO  INJ EQV   CARGA   ELO CC    SHUNT   EXPORT   IMPORT   PERDAS  
     MW/      MW/      MW/      MW/     Mvar/     MW/      MW/      MW/   
    Mvar     Mvar     Mvar     Mvar     EQUIV    Mvar     Mvar     Mvar   
 X--------X--------X--------X--------X--------X--------X--------X--------X

     371.4      0.0    362.5      0.0      0.0      0.0      0.0      8.9
     121.3      0.0    167.0      0.0      0.0      0.0      0.0    -45.7
CEPEL - CENTRO DE PESQUISAS DE ENERGIA ELETRICA - PROGRAMA DE ANALISE DE REDES - V11.07.00                                 PAG.   3

                                                                                 
 RELATORIO DE DADOS DE BARRA CA

 X------------------X-------------X----------------------------X-------X-----------------------X---------------X-------X---X---X---------------------------------------X
      BARRA            BARRA              TENSAO          GRUPO  GER MW         GER Mvar             CARGA       SHUNT      BMP AG1 AG2 AG3 AG4 AG5 AG6 AG7 AG8 AG9 A10
  NUM.      NOME     TP ARE CONTR   MOD   ANG   ESPEC CNT B  L   ATUAL     MIN   ATUAL     MAX      MW    Mvar    Mvar  EST TIP GRP GRP GRP GRP GRP GRP GRP GRP GRP GRP
 X-----X------------X--X---X------X-----X------X-----X---X--X--X-------X-------X-------X-------X-------X-------X-------X---X---X---X---X---X---X---X---X---X---X---X---X

      1 Bar-1 Ger1    2   1      1 1.000   -0.0 1.000 LOC  0  0   271.4   122.0    71.5   122.0     0.0     0.0     0.0 LIG                                            
      2 Bar-2 Ger2    1   1      2 1.000  -12.0 1.000 LOC  0  0   100.0    96.0    49.9    96.0     0.0     0.0     0.0 LIG                                            
      3 Bar-3         0   1      0 0.973   -8.3            1  0     0.0     0.0     0.0     0.0     0.0     0.0     0.0 LIG                                            
      4 Bar-4         0   1      0 0.965  -16.3            1  0     0.0     0.0     0.0     0.0     0.0     0.0     0.0 LIG                                            
      5 Bar-5 Car1    0   1      0 0.940  -14.3            1  0     0.0     0.0     0.0     0.0    55.0    27.0     0.0 LIG                                            
      6 Bar-6 Car2    0   1      0 0.953  -17.4            1  0     0.0     0.0     0.0     0.0    37.0    18.0     0.0 LIG                                            
      7 Bar-7 Car3    0   1      0 0.925  -19.7            1  0     0.0     0.0     0.0     0.0    68.0    45.0     0.0 LIG                                            
      8 Bar-8 Car4    0   1      0 0.944  -16.8            1  0     0.0     0.0     0.0     0.0    90.0    35.0     0.0 LIG                                            
      9 Bar-9 Car5    0   1      0 0.901  -23.4            1  0     0.0     0.0     0.0     0.0   112.5    42.0     0.0 LIG                                            
CEPEL - CENTRO DE PESQUISAS DE ENERGIA ELETRICA - PROGRAMA DE ANALISE DE REDES - V11.07.00                                 PAG.   4

                                                                                 
 RELATORIO DE DADOS DE CIRCUITO CA

 X--------------X-----------X-----X-----------------------X-----------------------------------X--------------------X-------------------------X---------------------------------------X
     BARRA          ESTADO   BARRA  RESIST  REATAN  SUSCEP         T A P         ANG  BARRA           (MVA)               IDENTIFICACAO       AG1 AG2 AG3 AG4 AG5 AG6 AG7 AG8 AG9 A10
   DE   PARA  NC CIR DE PARA PROP.   (%)     (%)   (Mvar)   ATUAL   MIN    MAX  DEFAS CONTR. M NORMAL EMERG. EQUIP.   DA BARRA    PARA BARRA  GRP GRP GRP GRP GRP GRP GRP GRP GRP GRP
 X-----X-----X--X---X---X---X-----X-------X-------X-------X------X------X------X-----X------X-X------X------X------X------------X------------X---X---X---X---X---X---X---X---X---X---X

      1     3  1 Lig Lig Lig     1    0.00    5.34   0.000  1.000                 0.3           300.0  300.0  300.0 Bar-1 Ger1   Bar-3                               
      2     4  1 Lig Lig Lig     2    0.00    7.68   0.000  1.000                 0.3           260.0  260.0  260.0 Bar-2 Ger2   Bar-4                               
      3     5  3 Lig Lig Lig     3    1.70    9.20  15.800                                      200.0  220.0  200.0 Bar-3        Bar-5 Car1                                          
      3     8  1 Lig Lig Lig     3    1.00    8.50  17.600                                      200.0  220.0  200.0 Bar-3        Bar-8 Car4                                          
      4     6  1 Lig Lig Lig     4    0.85    7.20  14.900                                      200.0  220.0  200.0 Bar-4        Bar-6 Car2                                          
      4     7  1 Lig Lig Lig     4    0.90    7.90  16.200                                      200.0  220.0  200.0 Bar-4        Bar-7 Car3                                          
      5     7  1 Lig Lig Lig     5    3.20   16.10  30.600                                      200.0  220.0  200.0 Bar-5 Car1   Bar-7 Car3                                          
      6     8  1 Lig Lig Lig     6    1.10    8.40  25.600                                      200.0  220.0  200.0 Bar-6 Car2   Bar-8 Car4                                          
      7     9  1 Lig Lig Lig     7    1.19   10.08  20.900                                      200.0  220.0  200.0 Bar-7 Car3   Bar-9 Car5                                          
      8     9  1 Lig Lig Lig     8    3.90   17.00  35.800                                      200.0  220.0  200.0 Bar-8 Car4   Bar-9 Car5                                          
